  Page 1                                    Sun Apr 14 22:26:20 2024

  ******************************************************************
  *                           E P A N E T                          *
  *                   Hydraulic and Water Quality                  *
  *                   Analysis for Pipe Networks                   *
  *                         Version 2.2                            *
  ******************************************************************
  
  Analysis begun Sun Apr 14 22:26:20 2024

  Analysis ended Sun Apr 14 22:26:20 2024
