  Page 1                                    Sat May 04 19:59:20 2024

  ******************************************************************
  *                           E P A N E T                          *
  *                   Hydraulic and Water Quality                  *
  *                   Analysis for Pipe Networks                   *
  *                         Version 2.2                            *
  ******************************************************************
  
  Analysis begun Sat May 04 19:59:20 2024

   
  Hydraulic Status:
  -----------------------------------------------------------------------
     0:00:00: Balanced after 4 trials
     0:00:00: Reservoir 9 is emptying
     0:00:00: Tank 2 is filling at 120.00 ft
   
     0:15:00: Balanced after 2 trials
   
     0:30:00: Balanced after 2 trials
   
     0:45:00: Balanced after 2 trials
   
     1:00:00: Balanced after 3 trials
   
     1:15:00: Balanced after 2 trials
   
     1:30:00: Balanced after 2 trials
   
     1:45:00: Balanced after 2 trials
   
     2:00:00: Balanced after 3 trials
   
     2:15:00: Balanced after 2 trials
   
     2:30:00: Balanced after 2 trials
   
     2:45:00: Balanced after 2 trials
   
     3:00:00: Balanced after 2 trials
   
     3:15:00: Balanced after 1 trials
   
     3:30:00: Balanced after 1 trials
   
     3:45:00: Balanced after 1 trials
   
     4:00:00: Balanced after 2 trials
   
     4:15:00: Balanced after 2 trials
   
     4:30:00: Balanced after 2 trials
   
     4:45:00: Balanced after 2 trials
   
     5:00:00: Balanced after 2 trials
   
     5:15:00: Balanced after 2 trials
   
     5:30:00: Balanced after 2 trials
   
     5:45:00: Balanced after 2 trials
   
     6:00:00: Balanced after 3 trials
   
     6:15:00: Balanced after 2 trials
   
     6:30:00: Balanced after 2 trials
   
     6:45:00: Balanced after 2 trials
   
     7:00:00: Balanced after 3 trials
   
     7:15:00: Balanced after 2 trials
   
     7:30:00: Balanced after 2 trials
   
     7:45:00: Balanced after 2 trials
   
     8:00:00: Balanced after 3 trials
   
     8:15:00: Balanced after 2 trials
   
     8:30:00: Balanced after 2 trials
   
     8:45:00: Balanced after 2 trials
   
     8:50:07: Pump 9 changed by Tank 2 control
     8:50:07: Balanced after 4 trials
     8:50:07: Reservoir 9 is closed
     8:50:07: Tank 2 is emptying at 140.00 ft
     8:50:07: Pump 9 changed from open to closed
   
     9:00:00: Balanced after 2 trials
   
     9:15:00: Balanced after 1 trials
   
     9:30:00: Balanced after 1 trials
   
     9:45:00: Balanced after 1 trials
   
    10:00:00: Balanced after 2 trials
   
    10:15:00: Balanced after 1 trials
   
    10:30:00: Balanced after 1 trials
   
    10:45:00: Balanced after 1 trials
   
    11:00:00: Balanced after 2 trials
   
    11:15:00: Balanced after 1 trials
   
    11:30:00: Balanced after 1 trials
   
    11:45:00: Balanced after 1 trials
   
    12:00:00: Balanced after 2 trials
   
    12:15:00: Balanced after 1 trials
   
    12:30:00: Balanced after 1 trials
   
    12:45:00: Balanced after 1 trials
   
    13:00:00: Balanced after 2 trials
   
    13:15:00: Balanced after 1 trials
   
    13:30:00: Balanced after 1 trials
   
    13:45:00: Balanced after 1 trials
   
    14:00:00: Balanced after 2 trials
   
    14:15:00: Balanced after 1 trials
   
    14:30:00: Balanced after 1 trials
   
    14:45:00: Balanced after 1 trials
   
    15:00:00: Balanced after 2 trials
   
    15:15:00: Balanced after 1 trials
   
    15:30:00: Balanced after 1 trials
   
    15:45:00: Balanced after 1 trials
   
    15:49:11: Pump 9 changed by Tank 2 control
    15:49:11: Balanced after 8 trials
    15:49:11: Reservoir 9 is emptying
    15:49:11: Tank 2 is filling at 110.00 ft
    15:49:11: Pump 9 changed from closed to open
   
    16:00:00: Balanced after 2 trials
   
    16:15:00: Balanced after 2 trials
   
    16:30:00: Balanced after 2 trials
   
    16:45:00: Balanced after 2 trials
   
    17:00:00: Balanced after 2 trials
   
    17:15:00: Balanced after 2 trials
   
    17:30:00: Balanced after 2 trials
   
    17:45:00: Balanced after 2 trials
   
    18:00:00: Balanced after 3 trials
   
    18:15:00: Balanced after 2 trials
   
    18:30:00: Balanced after 2 trials
   
    18:45:00: Balanced after 2 trials
   
    19:00:00: Balanced after 3 trials
   
    19:15:00: Balanced after 2 trials
   
    19:30:00: Balanced after 2 trials
   
    19:45:00: Balanced after 2 trials
   
    20:00:00: Balanced after 3 trials
   
    20:15:00: Balanced after 2 trials
   
    20:30:00: Balanced after 2 trials
   
    20:45:00: Balanced after 2 trials
   
    21:00:00: Balanced after 3 trials
   
    21:15:00: Balanced after 2 trials
   
    21:30:00: Balanced after 2 trials
   
    21:45:00: Balanced after 2 trials
   
    22:00:00: Balanced after 3 trials
   
    22:15:00: Balanced after 2 trials
   
    22:30:00: Balanced after 2 trials
   
    22:45:00: Balanced after 2 trials
   
    23:00:00: Balanced after 3 trials
   
    23:15:00: Balanced after 2 trials
   
    23:30:00: Balanced after 2 trials
   
    23:45:00: Balanced after 2 trials
   
    24:00:00: Balanced after 3 trials
   
    24:14:18: Pump 9 changed by Tank 2 control
    24:14:18: Balanced after 4 trials
    24:14:18: Reservoir 9 is closed
    24:14:18: Tank 2 is emptying at 140.00 ft
    24:14:18: Pump 9 changed from open to closed
   
    24:15:00: Balanced after 1 trials
   
    24:30:00: Balanced after 1 trials
   
    24:45:00: Balanced after 1 trials
   
    25:00:00: Balanced after 2 trials
   
    25:15:00: Balanced after 1 trials
   
    25:30:00: Balanced after 1 trials
   
    25:45:00: Balanced after 1 trials
   
    26:00:00: Balanced after 2 trials
   
    26:15:00: Balanced after 1 trials
   
    26:30:00: Balanced after 1 trials
   
    26:45:00: Balanced after 1 trials
   
    27:00:00: Balanced after 2 trials
   
    27:15:00: Balanced after 1 trials
   
    27:30:00: Balanced after 1 trials
   
    27:45:00: Balanced after 1 trials
   
    28:00:00: Balanced after 2 trials
   
    28:15:00: Balanced after 1 trials
   
    28:30:00: Balanced after 1 trials
   
    28:45:00: Balanced after 1 trials
   
    29:00:00: Balanced after 2 trials
   
  Water Quality Mass Balance (mg)
  ================================
  Initial Mass:      7.47582e+006
  Mass Inflow:       2.78415e+012
  Mass Outflow:      1.08724e+012
  Mass Reacted:      1.24259e+012
  Final Mass:        4.54327e+011
  Mass Ratio:         1.00000
  ================================

  Analysis ended Sat May 04 19:59:20 2024
