  Page 1                                    Fri Dec 29 20:40:32 2023

  ******************************************************************
  *                           E P A N E T                          *
  *                   Hydraulic and Water Quality                  *
  *                   Analysis for Pipe Networks                   *
  *                         Version 2.2                            *
  ******************************************************************
  
  Analysis begun Fri Dec 29 20:40:32 2023

   
  Node Results at 0:00:00 hrs:
  --------------------------------------------------------
                     Demand      Head  Pressure  Fluoride
  Node                  gpm        ft       psi      mg/L
  --------------------------------------------------------
  1                 -666.62    309.88    112.61      1.00
  2                   10.08    305.22     88.92      1.00
  3                   17.64    304.59    105.98      1.00
  4                   10.08    304.17    105.80      1.00
  5                   10.08    304.13     88.45      1.00
  6                    6.30    302.10     76.74      1.00
  7                    5.04    297.62     59.63      1.00
  8                   11.34    297.61     81.29      1.00
  9                   17.64    297.00     50.69      1.00
  10                   6.30    297.61     72.63      1.00
  11                  43.82    295.97     48.08      1.00
  12                  20.16    293.57     36.21      1.00
  13                   2.52    292.86     35.90      1.00
  14                   2.52    292.54     40.10      1.00
  15                   2.52    292.35     44.35      1.00
  16                  25.20    292.38     61.69      1.00
  17                  25.20    292.33     48.67      1.00
  18                  25.20    292.33     83.34      1.00
  19                   6.30    292.34     61.67      1.00
  20                  23.94    292.51     53.08      1.00
  21                  20.16    292.49     61.74      1.00
  22                  12.60    292.49     40.07      1.00
  23                  10.08    291.91     26.83      1.00
  24                  13.86    292.22     44.29      1.00
  25                   7.56    291.77     26.76      1.00
  27                  10.08    291.75     70.09      1.00
  28                   0.00    291.74     78.75      1.00
  29                   8.82    291.74     78.75      1.00
  30                   3.78    291.74     70.08      1.00
  31                  21.42    291.76     44.09      1.00
  32                  21.42    292.33     79.00      1.00
  33                   1.89    292.49     48.74      1.00
  34                   1.89    292.49     44.41      1.00
  35                   0.00    291.74     78.75      1.00
  36                   1.26    291.74     78.75      1.00
  26                 259.92    291.70     24.57      1.00  Tank
   
   
  Link Results at 0:00:00 hrs:
  ----------------------------------------------
                       Flow  Velocity  Headloss
  Link                  gpm       fps   /1000ft
  ----------------------------------------------
  1                  666.62      1.89      1.94
  2                  548.36      1.56      1.35
  3                  108.18      0.69      0.48
  4                   90.54      0.58      0.35
  5                   80.46      0.23      0.04
  6                  618.74      1.76      1.69
  7                  612.44      1.74      1.66
  8                   17.64      0.05      0.00
  9                  589.76      1.67      1.55
  10                   6.30      0.04      0.00
  11                 572.12      1.62      1.46
  12                 528.30      1.50      1.26
  13                 508.14      1.44      1.18
  14                 418.27      1.19      0.82
  15                 355.27      1.01      0.61
  16                  87.35      0.56      0.33
  17                  15.97      0.10      0.01
  18                  38.76      0.25      0.07
  19                  29.52      0.08      0.01
  20                   4.32      0.01      0.00
  21                  23.40      0.15      0.03
  22                  60.48      0.17      0.02
  23                  18.34      0.12      0.02
  24                  -1.82      0.01      0.00
  25                  18.20      0.12      0.02
  26                 322.92      0.92      0.51
  27                 336.78      0.96      0.55
  28                 312.84      0.89      0.48
  29                 259.92      0.74      0.34
  30                  45.36      0.13      0.01
  31                  23.94      0.15      0.03
  32                  13.86      0.09      0.01
  34                   2.57      0.02      0.00
  35                   3.78      0.02      0.00
  36                   1.89      0.01      0.00
  37                 -17.10      0.11      0.02
  38                   2.47      0.02      0.00
  39                   3.78      0.02      0.00
  40                   1.31      0.01      0.00
  41                   1.26      0.01      0.00
   
   
  Node Results at 0:15:00 hrs:
  --------------------------------------------------------
                     Demand      Head  Pressure  Fluoride
  Node                  gpm        ft       psi      mg/L
  --------------------------------------------------------
  1                 -666.62    310.15    112.72 2.00e+006
  2                   10.08    305.48     89.04      1.00
  3                   17.64    304.86    106.10      1.00
  4                   10.08    304.44    105.92      1.00
  5                   10.08    304.40     88.57      1.00
  6                    6.30    302.37     76.85      1.00
  7                    5.04    297.88     59.74      1.00
  8                   11.34    297.88     81.41      1.00
  9                   17.64    297.26     50.81      1.00
  10                   6.30    297.88     72.74      1.00
  11                  43.82    296.24     48.20      1.00
  12                  20.16    293.83     36.33      1.00
  13                   2.52    293.13     36.02      1.00
  14                   2.52    292.80     40.21      1.00
  15                   2.52    292.62     44.46      1.00
  16                  25.20    292.64     61.81      1.00
  17                  25.20    292.60     48.79      1.00
  18                  25.20    292.59     83.45      1.00
  19                   6.30    292.60     61.79      1.00
  20                  23.94    292.78     53.20      1.00
  21                  20.16    292.75     61.85      1.00
  22                  12.60    292.75     40.19      1.00
  23                  10.08    292.18     26.94      1.00
  24                  13.86    292.48     44.41      1.00
  25                   7.56    292.03     26.88      1.00
  27                  10.08    292.01     70.20      1.00
  28                   0.00    292.01     78.86      1.00
  29                   8.82    292.01     78.86      1.00
  30                   3.78    292.01     70.20      1.00
  31                  21.42    292.03     44.21      1.00
  32                  21.42    292.59     79.12      1.00
  33                   1.89    292.75     48.86      1.00
  34                   1.89    292.75     44.52      1.00
  35                   0.00    292.01     78.86      1.00
  36                   1.26    292.01     78.86      1.00
  26                 259.92    291.97     24.68      1.00  Tank
   
   
  Link Results at 0:15:00 hrs:
  ----------------------------------------------
                       Flow  Velocity  Headloss
  Link                  gpm       fps   /1000ft
  ----------------------------------------------
  1                  666.62      1.89      1.94
  2                  548.36      1.56      1.35
  3                  108.18      0.69      0.48
  4                   90.54      0.58      0.35
  5                   80.46      0.23      0.04
  6                  618.74      1.76      1.69
  7                  612.44      1.74      1.66
  8                   17.64      0.05      0.00
  9                  589.76      1.67      1.55
  10                   6.30      0.04      0.00
  11                 572.12      1.62      1.46
  12                 528.30      1.50      1.26
  13                 508.14      1.44      1.18
  14                 418.27      1.19      0.82
  15                 355.27      1.01      0.61
  16                  87.35      0.56      0.33
  17                  15.97      0.10      0.01
  18                  38.76      0.25      0.07
  19                  29.52      0.08      0.01
  20                   4.32      0.01      0.00
  21                  23.40      0.15      0.03
  22                  60.48      0.17      0.02
  23                  18.34      0.12      0.02
  24                  -1.82      0.01      0.00
  25                  18.20      0.12      0.02
  26                 322.92      0.92      0.51
  27                 336.78      0.96      0.55
  28                 312.84      0.89      0.48
  29                 259.92      0.74      0.34
  30                  45.36      0.13      0.01
  31                  23.94      0.15      0.03
  32                  13.86      0.09      0.01
  34                   2.19      0.01      0.00
  35                   3.78      0.02      0.00
  36                   1.89      0.01      0.00
  37                 -17.10      0.11      0.02
  38                   2.85      0.02      0.00
  39                   3.78      0.02      0.00
  40                   0.93      0.01      0.00
  41                   1.26      0.01      0.00
   
   
  Node Results at 0:30:00 hrs:
  --------------------------------------------------------
                     Demand      Head  Pressure  Fluoride
  Node                  gpm        ft       psi      mg/L
  --------------------------------------------------------
  1                 -666.62    310.42    112.84 2.00e+006
  2                   10.08    305.75     89.15 1.18e+006
  3                   17.64    305.12    106.21      1.00
  4                   10.08    304.70    106.03      1.00
  5                   10.08    304.67     88.68 440922.03
  6                    6.30    302.63     76.97 105986.54
  7                    5.04    298.15     59.86      1.00
  8                   11.34    298.15     81.52      1.00
  9                   17.64    297.53     50.92      1.00
  10                   6.30    298.14     72.86      1.00
  11                  43.82    296.50     48.31      1.00
  12                  20.16    294.10     36.44      1.00
  13                   2.52    293.39     36.13      1.00
  14                   2.52    293.07     40.33      1.00
  15                   2.52    292.88     44.58      1.00
  16                  25.20    292.91     61.92      1.00
  17                  25.20    292.86     48.90      1.00
  18                  25.20    292.86     83.57      1.00
  19                   6.30    292.87     61.90      1.00
  20                  23.94    293.04     53.31      1.00
  21                  20.16    293.02     61.97      1.00
  22                  12.60    293.02     40.30      1.00
  23                  10.08    292.44     27.06      1.00
  24                  13.86    292.75     44.52      1.00
  25                   7.56    292.30     26.99      1.00
  27                  10.08    292.28     70.32      1.00
  28                   0.00    292.27     78.98      1.00
  29                   8.82    292.27     78.98      1.00
  30                   3.78    292.27     70.31      1.00
  31                  21.42    292.29     44.32      1.00
  32                  21.42    292.86     79.23      1.00
  33                   1.89    293.02     48.97      1.00
  34                   1.89    293.02     44.64      1.00
  35                   0.00    292.27     78.98      1.00
  36                   1.26    292.27     78.98      1.00
  26                 259.92    292.23     24.80      1.00  Tank
   
   
  Link Results at 0:30:00 hrs:
  ----------------------------------------------
                       Flow  Velocity  Headloss
  Link                  gpm       fps   /1000ft
  ----------------------------------------------
  1                  666.62      1.89      1.94
  2                  548.36      1.56      1.35
  3                  108.18      0.69      0.48
  4                   90.54      0.58      0.35
  5                   80.46      0.23      0.04
  6                  618.74      1.76      1.69
  7                  612.44      1.74      1.66
  8                   17.64      0.05      0.00
  9                  589.76      1.67      1.55
  10                   6.30      0.04      0.00
  11                 572.12      1.62      1.46
  12                 528.30      1.50      1.26
  13                 508.14      1.44      1.18
  14                 418.27      1.19      0.82
  15                 355.27      1.01      0.61
  16                  87.35      0.56      0.33
  17                  15.97      0.10      0.01
  18                  38.76      0.25      0.07
  19                  29.52      0.08      0.01
  20                   4.32      0.01      0.00
  21                  23.40      0.15      0.03
  22                  60.48      0.17      0.02
  23                  18.34      0.12      0.02
  24                  -1.82      0.01      0.00
  25                  18.20      0.12      0.02
  26                 322.92      0.92      0.51
  27                 336.78      0.96      0.55
  28                 312.84      0.89      0.48
  29                 259.92      0.74      0.34
  30                  45.36      0.13      0.01
  31                  23.94      0.15      0.03
  32                  13.86      0.09      0.01
  34                   2.17      0.01      0.00
  35                   3.78      0.02      0.00
  36                   1.89      0.01      0.00
  37                 -17.10      0.11      0.02
  38                   2.87      0.02      0.00
  39                   3.78      0.02      0.00
  40                   0.91      0.01      0.00
  41                   1.26      0.01      0.00
   
   
  Node Results at 0:45:00 hrs:
  --------------------------------------------------------
                     Demand      Head  Pressure  Fluoride
  Node                  gpm        ft       psi      mg/L
  --------------------------------------------------------
  1                 -666.62    310.68    112.95 2.00e+006
  2                   10.08    306.01     89.27 2.00e+006
  3                   17.64    305.39    106.33      1.00
  4                   10.08    304.97    106.15      1.00
  5                   10.08    304.93     88.80 1.34e+006
  6                    6.30    302.90     77.08 655919.63
  7                    5.04    298.41     59.97  28962.37
  8                   11.34    298.41     81.64      1.00
  9                   17.64    297.79     51.04  21268.75
  10                   6.30    298.41     72.97      1.00
  11                  43.82    296.77     48.43  11076.75
  12                  20.16    294.37     36.56      1.00
  13                   2.52    293.66     36.25      1.00
  14                   2.52    293.33     40.44      1.00
  15                   2.52    293.15     44.69      1.00
  16                  25.20    293.17     62.04      1.00
  17                  25.20    293.13     49.02      1.00
  18                  25.20    293.12     83.68      1.00
  19                   6.30    293.13     62.02      1.00
  20                  23.94    293.31     53.43      1.00
  21                  20.16    293.28     62.08      1.00
  22                  12.60    293.28     40.42      1.00
  23                  10.08    292.71     27.17      1.00
  24                  13.86    293.01     44.64      1.00
  25                   7.56    292.56     27.11      1.00
  27                  10.08    292.54     70.43      1.00
  28                   0.00    292.54     79.09      1.00
  29                   8.82    292.54     79.09      1.00
  30                   3.78    292.54     70.43      1.00
  31                  21.42    292.56     44.44      1.00
  32                  21.42    293.12     79.35      1.00
  33                   1.89    293.28     49.09      1.00
  34                   1.89    293.28     44.75      1.00
  35                   0.00    292.54     79.09      1.00
  36                   1.26    292.54     79.09      1.00
  26                 259.92    292.50     24.91      1.00  Tank
   
   
  Link Results at 0:45:00 hrs:
  ----------------------------------------------
                       Flow  Velocity  Headloss
  Link                  gpm       fps   /1000ft
  ----------------------------------------------
  1                  666.62      1.89      1.94
  2                  548.36      1.56      1.35
  3                  108.18      0.69      0.48
  4                   90.54      0.58      0.35
  5                   80.46      0.23      0.04
  6                  618.74      1.76      1.69
  7                  612.44      1.74      1.66
  8                   17.64      0.05      0.00
  9                  589.76      1.67      1.55
  10                   6.30      0.04      0.00
  11                 572.12      1.62      1.46
  12                 528.30      1.50      1.26
  13                 508.14      1.44      1.18
  14                 418.27      1.19      0.82
  15                 355.27      1.01      0.61
  16                  87.35      0.56      0.33
  17                  15.97      0.10      0.01
  18                  38.76      0.25      0.07
  19                  29.52      0.08      0.01
  20                   4.32      0.01      0.00
  21                  23.40      0.15      0.03
  22                  60.48      0.17      0.02
  23                  18.34      0.12      0.02
  24                  -1.82      0.01      0.00
  25                  18.20      0.12      0.02
  26                 322.92      0.92      0.51
  27                 336.78      0.96      0.55
  28                 312.84      0.89      0.48
  29                 259.92      0.74      0.34
  30                  45.36      0.13      0.01
  31                  23.94      0.15      0.03
  32                  13.86      0.09      0.01
  34                   2.17      0.01      0.00
  35                   3.78      0.02      0.00
  36                   1.89      0.01      0.00
  37                 -17.10      0.11      0.02
  38                   2.87      0.02      0.00
  39                   3.78      0.02      0.00
  40                   0.91      0.01      0.00
  41                   1.26      0.01      0.00
   
   
  Node Results at 1:00:00 hrs:
  --------------------------------------------------------
                     Demand      Head  Pressure  Fluoride
  Node                  gpm        ft       psi      mg/L
  --------------------------------------------------------
  1                 -666.62    311.83    113.45 2.00e+006
  2                    8.32    307.16     89.76 2.00e+006
  3                   14.56    306.54    106.83 1.07e+006
  4                    8.32    306.11    106.64      1.00
  5                    8.32    306.07     89.29 1.74e+006
  6                    5.20    303.98     77.55 1.43e+006
  7                    4.16    299.37     60.39 256260.02
  8                    9.36    299.37     82.05      1.00
  9                   14.56    298.72     51.44 195878.11
  10                   5.20    299.36     73.39      1.00
  11                  36.17    297.64     48.81 112201.22
  12                  16.64    295.03     36.84   6550.68
  13                   2.08    294.25     36.51   3521.55
  14                   2.08    293.89     40.68   2202.86
  15                   2.08    293.67     44.92   1474.60
  16                  20.80    293.73     62.28      1.00
  17                  20.80    293.67     49.25      1.00
  18                  20.80    293.67     83.92      1.00
  19                   5.20    293.68     62.26      1.00
  20                  19.76    293.87     53.67      1.00
  21                  16.64    293.85     62.33      1.00
  22                  10.40    293.85     40.67      1.00
  23                   8.32    293.07     27.33    285.54
  24                  11.44    293.49     44.84   1046.15
  25                   6.24    292.87     27.24    178.66
  27                   8.32    292.85     70.56      1.00
  28                   0.00    292.85     79.23      1.00
  29                   7.28    292.85     79.23      1.00
  30                   3.12    292.85     70.56      1.00
  31                  17.68    292.86     44.57      1.00
  32                  17.68    293.67     79.58      1.00
  33                   1.56    293.85     49.33      1.00
  34                   1.56    293.85     45.00      1.00
  35                   0.00    292.85     79.23      1.00
  36                   1.04    292.85     79.23      1.00
  26                 330.93    292.76     25.03      1.57  Tank
   
   
  Link Results at 1:00:00 hrs:
  ----------------------------------------------
                       Flow  Velocity  Headloss
  Link                  gpm       fps   /1000ft
  ----------------------------------------------
  1                  666.62      1.89      1.94
  2                  551.15      1.56      1.37
  3                  107.16      0.68      0.47
  4                   92.60      0.59      0.36
  5                   84.28      0.24      0.04
  6                  627.10      1.78      1.74
  7                  621.90      1.76      1.71
  8                   14.56      0.04      0.00
  9                  603.18      1.71      1.62
  10                   5.20      0.03      0.00
  11                 588.62      1.67      1.54
  12                 552.45      1.57      1.37
  13                 535.81      1.52      1.30
  14                 442.98      1.26      0.91
  15                 390.98      1.11      0.72
  16                  90.76      0.58      0.35
  17                  -5.48      0.03      0.00
  18                  44.44      0.28      0.09
  19                  18.17      0.05      0.00
  20                  -2.63      0.01      0.00
  21                  25.51      0.16      0.03
  22                  49.92      0.14      0.02
  23                  15.14      0.10      0.01
  24                  -1.50      0.01      0.00
  25                  15.02      0.10      0.01
  26                 382.93      1.09      0.70
  27                 394.37      1.12      0.74
  28                 374.61      1.06      0.67
  29                 330.93      0.94      0.53
  30                  37.44      0.11      0.01
  31                  19.76      0.13      0.02
  32                  11.44      0.07      0.01
  34                   1.79      0.01      0.00
  35                   3.12      0.02      0.00
  36                   1.56      0.01      0.00
  37                 -20.31      0.13      0.02
  38                   2.37      0.02      0.00
  39                   3.12      0.02      0.00
  40                   0.75      0.00      0.00
  41                   1.04      0.01      0.00
   
   
  Node Results at 1:15:00 hrs:
  --------------------------------------------------------
                     Demand      Head  Pressure  Fluoride
  Node                  gpm        ft       psi      mg/L
  --------------------------------------------------------
  1                 -666.62    312.16    113.60 2.00e+006
  2                    8.32    307.50     89.91 2.00e+006
  3                   14.56    306.88    106.97 1.92e+006
  4                    8.32    306.45    106.79      1.00
  5                    8.32    306.40     89.43 1.73e+006
  6                    5.20    304.32     77.70 1.74e+006
  7                    4.16    299.70     60.53 877025.25
  8                    9.36    299.70     82.20      1.00
  9                   14.56    299.06     51.59 715787.19
  10                   5.20    299.70     73.53      1.00
  11                  36.17    297.98     48.95 473618.72
  12                  16.64    295.37     36.99  72683.59
  13                   2.08    294.59     36.65  43677.71
  14                   2.08    294.23     40.83  29475.35
  15                   2.08    294.01     45.07  21005.42
  16                  20.80    294.07     62.42      1.00
  17                  20.80    294.01     49.40      1.00
  18                  20.80    294.01     84.06      1.00
  19                   5.20    294.02     62.40      1.00
  20                  19.76    294.21     53.82      1.00
  21                  16.64    294.19     62.48      1.00
  22                  10.40    294.19     40.81      1.00
  23                   8.32    293.41     27.47   6883.05
  24                  11.44    293.82     44.99  16156.07
  25                   6.24    293.21     27.39   4813.63
  27                   8.32    293.19     70.71      1.00
  28                   0.00    293.19     79.38      1.00
  29                   7.28    293.19     79.38      1.00
  30                   3.12    293.19     70.71      1.00
  31                  17.68    293.20     44.72      1.00
  32                  17.68    294.01     79.73      1.00
  33                   1.56    294.19     49.48      1.00
  34                   1.56    294.19     45.15      1.00
  35                   0.00    293.19     79.38      1.00
  36                   1.04    293.19     79.38      1.00
  26                 330.93    293.10     25.17     23.18  Tank
   
   
  Link Results at 1:15:00 hrs:
  ----------------------------------------------
                       Flow  Velocity  Headloss
  Link                  gpm       fps   /1000ft
  ----------------------------------------------
  1                  666.62      1.89      1.94
  2                  551.15      1.56      1.37
  3                  107.16      0.68      0.47
  4                   92.60      0.59      0.36
  5                   84.28      0.24      0.04
  6                  627.10      1.78      1.74
  7                  621.90      1.76      1.71
  8                   14.56      0.04      0.00
  9                  603.18      1.71      1.62
  10                   5.20      0.03      0.00
  11                 588.62      1.67      1.54
  12                 552.45      1.57      1.37
  13                 535.81      1.52      1.30
  14                 442.98      1.26      0.91
  15                 390.98      1.11      0.72
  16                  90.76      0.58      0.35
  17                  -5.48      0.03      0.00
  18                  44.44      0.28      0.09
  19                  18.17      0.05      0.00
  20                  -2.63      0.01      0.00
  21                  25.51      0.16      0.03
  22                  49.92      0.14      0.02
  23                  15.14      0.10      0.01
  24                  -1.50      0.01      0.00
  25                  15.02      0.10      0.01
  26                 382.93      1.09      0.70
  27                 394.37      1.12      0.74
  28                 374.61      1.06      0.67
  29                 330.93      0.94      0.53
  30                  37.44      0.11      0.01
  31                  19.76      0.13      0.02
  32                  11.44      0.07      0.01
  34                   1.79      0.01      0.00
  35                   3.12      0.02      0.00
  36                   1.56      0.01      0.00
  37                 -20.31      0.13      0.02
  38                   2.37      0.02      0.00
  39                   3.12      0.02      0.00
  40                   0.75      0.00      0.00
  41                   1.04      0.01      0.00
   
   
  Node Results at 1:30:00 hrs:
  --------------------------------------------------------
                     Demand      Head  Pressure  Fluoride
  Node                  gpm        ft       psi      mg/L
  --------------------------------------------------------
  1                 -666.62    312.50    113.74 2.00e+006
  2                    8.32    307.84     90.06 2.00e+006
  3                   14.56    307.22    107.12 2.00e+006
  4                    8.32    306.78    106.93 773265.13
  5                    8.32    306.74     89.58 1.73e+006
  6                    5.20    304.66     77.85 1.73e+006
  7                    4.16    300.04     60.68 1.53e+006
  8                    9.36    300.04     82.34      1.00
  9                   14.56    299.40     51.73 1.36e+006
  10                   5.20    300.04     73.68      1.00
  11                  36.17    298.32     49.10 1.06e+006
  12                  16.64    295.71     37.14 348183.34
  13                   2.08    294.93     36.80 227349.23
  14                   2.08    294.56     40.97 162388.61
  15                   2.08    294.35     45.21 120772.49
  16                  20.80    294.40     62.57    301.38
  17                  20.80    294.35     49.55      1.00
  18                  20.80    294.35     84.21      1.00
  19                   5.20    294.36     62.55      1.00
  20                  19.76    294.55     53.97      1.00
  21                  16.64    294.53     62.62      1.00
  22                  10.40    294.53     40.96      1.00
  23                   8.32    293.74     27.62  46999.90
  24                  11.44    294.16     45.13  96001.10
  25                   6.24    293.54     27.53  34416.57
  27                   8.32    293.53     70.86      1.00
  28                   0.00    293.53     79.52      1.00
  29                   7.28    293.53     79.52      1.00
  30                   3.12    293.53     70.86      1.00
  31                  17.68    293.54     44.86      1.00
  32                  17.68    294.35     79.88      1.00
  33                   1.56    294.53     49.63      1.00
  34                   1.56    294.53     45.29      1.00
  35                   0.00    293.53     79.52      1.00
  36                   1.04    293.53     79.52      1.00
  26                 330.93    293.44     25.32    181.56  Tank
   
   
  Link Results at 1:30:00 hrs:
  ----------------------------------------------
                       Flow  Velocity  Headloss
  Link                  gpm       fps   /1000ft
  ----------------------------------------------
  1                  666.62      1.89      1.94
  2                  551.15      1.56      1.37
  3                  107.16      0.68      0.47
  4                   92.60      0.59      0.36
  5                   84.28      0.24      0.04
  6                  627.10      1.78      1.74
  7                  621.90      1.76      1.71
  8                   14.56      0.04      0.00
  9                  603.18      1.71      1.62
  10                   5.20      0.03      0.00
  11                 588.62      1.67      1.54
  12                 552.45      1.57      1.37
  13                 535.81      1.52      1.30
  14                 442.98      1.26      0.91
  15                 390.98      1.11      0.72
  16                  90.76      0.58      0.35
  17                  -5.48      0.03      0.00
  18                  44.44      0.28      0.09
  19                  18.17      0.05      0.00
  20                  -2.63      0.01      0.00
  21                  25.51      0.16      0.03
  22                  49.92      0.14      0.02
  23                  15.14      0.10      0.01
  24                  -1.50      0.01      0.00
  25                  15.02      0.10      0.01
  26                 382.93      1.09      0.70
  27                 394.37      1.12      0.74
  28                 374.61      1.06      0.67
  29                 330.93      0.94      0.53
  30                  37.44      0.11      0.01
  31                  19.76      0.13      0.02
  32                  11.44      0.07      0.01
  34                   1.79      0.01      0.00
  35                   3.12      0.02      0.00
  36                   1.56      0.01      0.00
  37                 -20.31      0.13      0.02
  38                   2.37      0.02      0.00
  39                   3.12      0.02      0.00
  40                   0.75      0.00      0.00
  41                   1.04      0.01      0.00
   
   
  Node Results at 1:45:00 hrs:
  --------------------------------------------------------
                     Demand      Head  Pressure  Fluoride
  Node                  gpm        ft       psi      mg/L
  --------------------------------------------------------
  1                 -666.62    312.84    113.89 2.00e+006
  2                    8.32    308.17     90.20 2.00e+006
  3                   14.56    307.56    107.27 2.00e+006
  4                    8.32    307.12    107.08 1.71e+006
  5                    8.32    307.08     89.73 1.73e+006
  6                    5.20    305.00     77.99 1.73e+006
  7                    4.16    300.38     60.83 1.74e+006
  8                    9.36    300.38     82.49      1.00
  9                   14.56    299.73     51.88 1.68e+006
  10                   5.20    300.38     73.82      1.00
  11                  36.17    298.65     49.25 1.53e+006
  12                  16.64    296.04     37.28 855523.19
  13                   2.08    295.27     36.95 633004.06
  14                   2.08    294.90     41.12 489532.78
  15                   2.08    294.68     45.36 385829.34
  16                  20.80    294.74     62.72   8453.43
  17                  20.80    294.69     49.69      1.00
  18                  20.80    294.69     84.36      1.00
  19                   5.20    294.70     62.70      1.00
  20                  19.76    294.88     54.11      1.00
  21                  16.64    294.87     62.77      1.00
  22                  10.40    294.87     41.11      1.00
  23                   8.32    294.08     27.77 182537.89
  24                  11.44    294.50     45.28 320017.78
  25                   6.24    293.88     27.68 140024.11
  27                   8.32    293.87     71.00      1.00
  28                   0.00    293.86     79.67      1.00
  29                   7.28    293.87     79.67      1.00
  30                   3.12    293.86     71.00      1.00
  31                  17.68    293.88     45.01      1.00
  32                  17.68    294.69     80.02      1.00
  33                   1.56    294.87     49.77      1.00
  34                   1.56    294.87     45.44      1.00
  35                   0.00    293.86     79.67      1.00
  36                   1.04    293.86     79.67      1.00
  26                 330.93    293.78     25.47    841.92  Tank
   
   
  Link Results at 1:45:00 hrs:
  ----------------------------------------------
                       Flow  Velocity  Headloss
  Link                  gpm       fps   /1000ft
  ----------------------------------------------
  1                  666.62      1.89      1.94
  2                  551.15      1.56      1.37
  3                  107.16      0.68      0.47
  4                   92.60      0.59      0.36
  5                   84.28      0.24      0.04
  6                  627.10      1.78      1.74
  7                  621.90      1.76      1.71
  8                   14.56      0.04      0.00
  9                  603.18      1.71      1.62
  10                   5.20      0.03      0.00
  11                 588.62      1.67      1.54
  12                 552.45      1.57      1.37
  13                 535.81      1.52      1.30
  14                 442.98      1.26      0.91
  15                 390.98      1.11      0.72
  16                  90.76      0.58      0.35
  17                  -5.48      0.03      0.00
  18                  44.44      0.28      0.09
  19                  18.17      0.05      0.00
  20                  -2.63      0.01      0.00
  21                  25.51      0.16      0.03
  22                  49.92      0.14      0.02
  23                  15.14      0.10      0.01
  24                  -1.50      0.01      0.00
  25                  15.02      0.10      0.01
  26                 382.93      1.09      0.70
  27                 394.37      1.12      0.74
  28                 374.61      1.06      0.67
  29                 330.93      0.94      0.53
  30                  37.44      0.11      0.01
  31                  19.76      0.13      0.02
  32                  11.44      0.07      0.01
  34                   1.79      0.01      0.00
  35                   3.12      0.02      0.00
  36                   1.56      0.01      0.00
  37                 -20.31      0.13      0.02
  38                   2.37      0.02      0.00
  39                   3.12      0.02      0.00
  40                   0.75      0.00      0.00
  41                   1.04      0.01      0.00
   
   
  Node Results at 2:00:00 hrs:
  --------------------------------------------------------
                     Demand      Head  Pressure  Fluoride
  Node                  gpm        ft       psi      mg/L
  --------------------------------------------------------
  1                 -666.62    313.47    114.16 2.00e+006
  2                    7.76    308.80     90.47 2.00e+006
  3                   13.58    308.19    107.54 2.00e+006
  4                    7.76    307.75    107.35 1.98e+006
  5                    7.76    307.71     90.00 1.73e+006
  6                    4.85    305.61     78.26 1.73e+006
  7                    3.88    300.95     61.07 1.73e+006
  8                    8.73    300.95     82.74      1.00
  9                   13.58    300.29     52.12 1.74e+006
  10                   4.85    300.95     74.07      1.00
  11                  33.74    299.20     49.48 1.71e+006
  12                  15.52    296.52     37.49 1.37e+006
  13                   1.94    295.72     37.14 1.14e+006
  14                   1.94    295.34     41.31 962636.50
  15                   1.94    295.11     45.54 809120.06
  16                  19.40    295.18     62.91  66235.77
  17                  19.40    295.12     49.88    196.17
  18                  19.40    295.12     84.55      1.00
  19                   4.85    295.14     62.89      1.00
  20                  18.43    295.33     54.30      1.00
  21                  15.52    295.31     62.96      1.00
  22                   9.70    295.31     41.30      1.00
  23                   7.76    294.45     27.93 468356.50
  24                  10.67    294.91     45.46 704020.25
  25                   5.82    294.23     27.83 378704.63
  27                   7.76    294.22     71.16      1.00
  28                   0.00    294.22     79.82      1.00
  29                   6.79    294.22     79.82      1.00
  30                   2.91    294.22     71.16      1.00
  31                  16.49    294.23     45.16      1.00
  32                  16.49    295.12     80.21      1.00
  33                   1.45    295.31     49.96      1.00
  34                   1.45    295.31     45.63      1.00
  35                   0.00    294.22     79.82      1.00
  36                   0.97    294.22     79.82      1.00
  26                 353.53    294.11     25.61   2679.22  Tank
   
   
  Link Results at 2:00:00 hrs:
  ----------------------------------------------
                       Flow  Velocity  Headloss
  Link                  gpm       fps   /1000ft
  ----------------------------------------------
  1                  666.62      1.89      1.94
  2                  552.04      1.57      1.37
  3                  106.83      0.68      0.47
  4                   93.25      0.60      0.37
  5                   85.49      0.24      0.04
  6                  629.76      1.79      1.75
  7                  624.91      1.77      1.72
  8                   13.58      0.04      0.00
  9                  607.45      1.72      1.64
  10                   4.85      0.03      0.00
  11                 593.87      1.68      1.57
  12                 560.14      1.59      1.41
  13                 544.62      1.54      1.34
  14                 450.95      1.28      0.94
  15                 402.45      1.14      0.76
  16                  91.73      0.59      0.36
  17                 -12.19      0.08      0.01
  18                  46.13      0.29      0.10
  19                  14.55      0.04      0.00
  20                  -4.85      0.01      0.00
  21                  26.19      0.17      0.03
  22                  46.56      0.13      0.01
  23                  14.12      0.09      0.01
  24                  -1.40      0.01      0.00
  25                  14.01      0.09      0.01
  26                 402.03      1.14      0.76
  27                 412.70      1.17      0.80
  28                 394.27      1.12      0.74
  29                 353.53      1.00      0.60
  30                  34.92      0.10      0.01
  31                  18.43      0.12      0.02
  32                  10.67      0.07      0.01
  34                   1.67      0.01      0.00
  35                   2.91      0.02      0.00
  36                   1.45      0.01      0.00
  37                 -21.34      0.14      0.02
  38                   2.21      0.01      0.00
  39                   2.91      0.02      0.00
  40                   0.70      0.00      0.00
  41                   0.97      0.01      0.00
   
   
  Node Results at 2:15:00 hrs:
  --------------------------------------------------------
                     Demand      Head  Pressure  Fluoride
  Node                  gpm        ft       psi      mg/L
  --------------------------------------------------------
  1                 -666.62    313.83    114.32 2.00e+006
  2                    7.76    309.16     90.63 2.00e+006
  3                   13.58    308.55    107.70 2.00e+006
  4                    7.76    308.11    107.51 2.00e+006
  5                    7.76    308.07     90.16 1.73e+006
  6                    4.85    305.97     78.41 1.73e+006
  7                    3.88    301.31     61.23 1.73e+006
  8                    8.73    301.31     82.89      1.00
  9                   13.58    300.66     52.28 1.73e+006
  10                   4.85    301.31     74.23      1.00
  11                  33.74    299.56     49.64 1.74e+006
  12                  15.52    296.88     37.65 1.65e+006
  13                   1.94    296.08     37.30 1.53e+006
  14                   1.94    295.70     41.47 1.39e+006
  15                   1.94    295.47     45.70 1.23e+006
  16                  19.40    295.55     63.06 280933.13
  17                  19.40    295.49     50.04   5702.74
  18                  19.40    295.48     84.70      1.00
  19                   4.85    295.50     63.04      1.00
  20                  18.43    295.69     54.46      1.00
  21                  15.52    295.67     63.12      1.00
  22                   9.70    295.67     41.45      1.00
  23                   7.76    294.82     28.08 881396.13
  24                  10.67    295.27     45.61 1.13e+006
  25                   5.82    294.59     27.99 758297.75
  27                   7.76    294.58     71.31      1.00
  28                   0.00    294.58     79.98      1.00
  29                   6.79    294.58     79.98      1.00
  30                   2.91    294.58     71.31      1.00
  31                  16.49    294.59     45.32      1.00
  32                  16.49    295.48     80.37      1.00
  33                   1.45    295.67     50.12      1.00
  34                   1.45    295.67     45.79      1.00
  35                   0.00    294.58     79.98      1.00
  36                   0.97    294.58     79.98      1.00
  26                 353.53    294.47     25.77   6755.57  Tank
   
   
  Link Results at 2:15:00 hrs:
  ----------------------------------------------
                       Flow  Velocity  Headloss
  Link                  gpm       fps   /1000ft
  ----------------------------------------------
  1                  666.62      1.89      1.94
  2                  552.04      1.57      1.37
  3                  106.83      0.68      0.47
  4                   93.25      0.60      0.37
  5                   85.49      0.24      0.04
  6                  629.76      1.79      1.75
  7                  624.91      1.77      1.72
  8                   13.58      0.04      0.00
  9                  607.45      1.72      1.64
  10                   4.85      0.03      0.00
  11                 593.87      1.68      1.57
  12                 560.14      1.59      1.41
  13                 544.62      1.54      1.34
  14                 450.95      1.28      0.94
  15                 402.45      1.14      0.76
  16                  91.72      0.59      0.36
  17                 -12.18      0.08      0.01
  18                  46.13      0.29      0.10
  19                  14.55      0.04      0.00
  20                  -4.85      0.01      0.00
  21                  26.19      0.17      0.03
  22                  46.56      0.13      0.01
  23                  14.12      0.09      0.01
  24                  -1.40      0.01      0.00
  25                  14.01      0.09      0.01
  26                 402.03      1.14      0.76
  27                 412.70      1.17      0.80
  28                 394.27      1.12      0.74
  29                 353.53      1.00      0.60
  30                  34.92      0.10      0.01
  31                  18.43      0.12      0.02
  32                  10.67      0.07      0.01
  34                   1.67      0.01      0.00
  35                   2.91      0.02      0.00
  36                   1.45      0.01      0.00
  37                 -21.34      0.14      0.02
  38                   2.21      0.01      0.00
  39                   2.91      0.02      0.00
  40                   0.70      0.00      0.00
  41                   0.97      0.01      0.00
   
   
  Node Results at 2:30:00 hrs:
  --------------------------------------------------------
                     Demand      Head  Pressure  Fluoride
  Node                  gpm        ft       psi      mg/L
  --------------------------------------------------------
  1                 -666.62    314.19    114.47 2.00e+006
  2                    7.76    309.53     90.79 2.00e+006
  3                   13.58    308.91    107.85 2.00e+006
  4                    7.76    308.47    107.66 2.00e+006
  5                    7.76    308.43     90.31 1.77e+006
  6                    4.85    306.33     78.57 1.74e+006
  7                    3.88    301.67     61.39 1.73e+006
  8                    8.73    301.67     83.05      1.00
  9                   13.58    301.02     52.44 1.73e+006
  10                   4.85    301.67     74.38      1.00
  11                  33.74    299.92     49.79 1.73e+006
  12                  15.52    297.24     37.80 1.73e+006
  13                   1.94    296.44     37.45 1.69e+006
  14                   1.94    296.06     41.62 1.64e+006
  15                   1.94    295.83     45.86 1.52e+006
  16                  19.40    295.91     63.22 705764.13
  17                  19.40    295.85     50.20  48857.20
  18                  19.40    295.85     84.86      1.00
  19                   4.85    295.86     63.20      1.00
  20                  18.43    296.05     54.62      1.00
  21                  15.52    296.03     63.28      1.00
  22                   9.70    296.03     41.61      1.00
  23                   7.76    295.18     28.24 1.26e+006
  24                  10.67    295.63     45.77 1.45e+006
  25                   5.82    294.96     28.15 1.15e+006
  27                   7.76    294.94     71.47      1.00
  28                   0.00    294.94     80.13      1.00
  29                   6.79    294.94     80.13      1.00
  30                   2.91    294.94     71.47      1.00
  31                  16.49    294.95     45.48    153.39
  32                  16.49    295.85     80.53      1.00
  33                   1.45    296.03     50.28      1.00
  34                   1.45    296.03     45.94      1.00
  35                   0.00    294.94     80.13      1.00
  36                   0.97    294.94     80.13      1.00
  26                 353.53    294.84     25.93  13130.12  Tank
   
   
  Link Results at 2:30:00 hrs:
  ----------------------------------------------
                       Flow  Velocity  Headloss
  Link                  gpm       fps   /1000ft
  ----------------------------------------------
  1                  666.62      1.89      1.94
  2                  552.04      1.57      1.37
  3                  106.83      0.68      0.47
  4                   93.25      0.60      0.37
  5                   85.49      0.24      0.04
  6                  629.76      1.79      1.75
  7                  624.91      1.77      1.72
  8                   13.58      0.04      0.00
  9                  607.45      1.72      1.64
  10                   4.85      0.03      0.00
  11                 593.87      1.68      1.57
  12                 560.14      1.59      1.41
  13                 544.62      1.54      1.34
  14                 450.95      1.28      0.94
  15                 402.45      1.14      0.76
  16                  91.72      0.59      0.36
  17                 -12.18      0.08      0.01
  18                  46.13      0.29      0.10
  19                  14.55      0.04      0.00
  20                  -4.85      0.01      0.00
  21                  26.19      0.17      0.03
  22                  46.56      0.13      0.01
  23                  14.12      0.09      0.01
  24                  -1.40      0.01      0.00
  25                  14.01      0.09      0.01
  26                 402.03      1.14      0.76
  27                 412.70      1.17      0.80
  28                 394.27      1.12      0.74
  29                 353.53      1.00      0.60
  30                  34.92      0.10      0.01
  31                  18.43      0.12      0.02
  32                  10.67      0.07      0.01
  34                   1.67      0.01      0.00
  35                   2.91      0.02      0.00
  36                   1.45      0.01      0.00
  37                 -21.34      0.14      0.02
  38                   2.21      0.01      0.00
  39                   2.91      0.02      0.00
  40                   0.70      0.00      0.00
  41                   0.97      0.01      0.00
   
   
  Node Results at 2:45:00 hrs:
  --------------------------------------------------------
                     Demand      Head  Pressure  Fluoride
  Node                  gpm        ft       psi      mg/L
  --------------------------------------------------------
  1                 -666.62    314.55    114.63 2.00e+006
  2                    7.76    309.89     90.94 2.00e+006
  3                   13.58    309.27    108.01 2.00e+006
  4                    7.76    308.83    107.82 2.00e+006
  5                    7.76    308.79     90.47 1.88e+006
  6                    4.85    306.69     78.73 1.80e+006
  7                    3.88    302.03     61.54 1.74e+006
  8                    8.73    302.03     83.21      1.00
  9                   13.58    301.38     52.59 1.74e+006
  10                   4.85    302.03     74.54      1.00
  11                  33.74    300.28     49.95 1.74e+006
  12                  15.52    297.60     37.96 1.73e+006
  13                   1.94    296.80     37.61 1.73e+006
  14                   1.94    296.42     41.78 1.72e+006
  15                   1.94    296.19     46.01 1.64e+006
  16                  19.40    296.27     63.38 1.20e+006
  17                  19.40    296.21     50.35 224231.84
  18                  19.40    296.21     85.02      1.00
  19                   4.85    296.22     63.36      1.00
  20                  18.43    296.41     54.77      1.00
  21                  15.52    296.39     63.43      1.00
  22                   9.70    296.39     41.77      1.00
  23                   7.76    295.54     28.40 1.52e+006
  24                  10.67    295.99     45.93 1.62e+006
  25                   5.82    295.32     28.30 1.44e+006
  27                   7.76    295.30     71.63      1.00
  28                   0.00    295.30     80.29      1.00
  29                   6.79    295.30     80.29      1.00
  30                   2.91    295.30     71.63      1.00
  31                  16.49    295.31     45.63   2768.60
  32                  16.49    296.21     80.68      1.00
  33                   1.45    296.39     50.43      1.00
  34                   1.45    296.39     46.10      1.00
  35                   0.00    295.30     80.29      1.00
  36                   0.97    295.30     80.29      1.00
  26                 353.53    295.20     26.08  21318.18  Tank
   
   
  Link Results at 2:45:00 hrs:
  ----------------------------------------------
                       Flow  Velocity  Headloss
  Link                  gpm       fps   /1000ft
  ----------------------------------------------
  1                  666.62      1.89      1.94
  2                  552.04      1.57      1.37
  3                  106.83      0.68      0.47
  4                   93.25      0.60      0.37
  5                   85.49      0.24      0.04
  6                  629.76      1.79      1.75
  7                  624.91      1.77      1.72
  8                   13.58      0.04      0.00
  9                  607.45      1.72      1.64
  10                   4.85      0.03      0.00
  11                 593.87      1.68      1.57
  12                 560.14      1.59      1.41
  13                 544.62      1.54      1.34
  14                 450.95      1.28      0.94
  15                 402.45      1.14      0.76
  16                  91.72      0.59      0.36
  17                 -12.18      0.08      0.01
  18                  46.13      0.29      0.10
  19                  14.55      0.04      0.00
  20                  -4.85      0.01      0.00
  21                  26.19      0.17      0.03
  22                  46.56      0.13      0.01
  23                  14.12      0.09      0.01
  24                  -1.40      0.01      0.00
  25                  14.01      0.09      0.01
  26                 402.03      1.14      0.76
  27                 412.70      1.17      0.80
  28                 394.27      1.12      0.74
  29                 353.53      1.00      0.60
  30                  34.92      0.10      0.01
  31                  18.43      0.12      0.02
  32                  10.67      0.07      0.01
  34                   1.67      0.01      0.00
  35                   2.91      0.02      0.00
  36                   1.45      0.01      0.00
  37                 -21.34      0.14      0.02
  38                   2.21      0.01      0.00
  39                   2.91      0.02      0.00
  40                   0.70      0.00      0.00
  41                   0.97      0.01      0.00
   
   
  Node Results at 3:00:00 hrs:
  --------------------------------------------------------
                     Demand      Head  Pressure  Fluoride
  Node                  gpm        ft       psi      mg/L
  --------------------------------------------------------
  1                 -666.62    314.91    114.79 2.00e+006
  2                    7.76    310.25     91.10 2.00e+006
  3                   13.58    309.63    108.17 2.00e+006
  4                    7.76    309.19    107.98 2.00e+006
  5                    7.76    309.15     90.63 1.98e+006
  6                    4.85    307.05     78.88 1.91e+006
  7                    3.88    302.39     61.70 1.76e+006
  8                    8.73    302.39     83.36      1.00
  9                   13.58    301.74     52.75 1.75e+006
  10                   4.85    302.39     74.70      1.00
  11                  33.74    300.64     50.11 1.75e+006
  12                  15.52    297.96     38.11 1.74e+006
  13                   1.94    297.16     37.77 1.73e+006
  14                   1.94    296.78     41.94 1.73e+006
  15                   1.94    296.56     46.17 1.68e+006
  16                  19.40    296.63     63.53 1.55e+006
  17                  19.40    296.57     50.51 593564.88
  18                  19.40    296.57     85.17      1.00
  19                   4.85    296.58     63.51      1.00
  20                  18.43    296.77     54.93    736.52
  21                  15.52    296.75     63.59      1.00
  22                   9.70    296.76     41.92      1.00
  23                   7.76    295.90     28.55 1.64e+006
  24                  10.67    296.36     46.08 1.67e+006
  25                   5.82    295.68     28.46 1.60e+006
  27                   7.76    295.67     71.78      1.00
  28                   0.00    295.66     80.45      1.00
  29                   6.79    295.66     80.45      1.00
  30                   2.91    295.66     71.78      1.00
  31                  16.49    295.67     45.79  19218.95
  32                  16.49    296.57     80.84      1.00
  33                   1.45    296.75     50.59      1.00
  34                   1.45    296.75     46.26      1.00
  35                   0.00    295.66     80.45      1.00
  36                   0.97    295.66     80.45      1.00
  26                 353.53    295.56     26.24  30536.35  Tank
   
   
  Link Results at 3:00:00 hrs:
  ----------------------------------------------
                       Flow  Velocity  Headloss
  Link                  gpm       fps   /1000ft
  ----------------------------------------------
  1                  666.62      1.89      1.94
  2                  552.04      1.57      1.37
  3                  106.83      0.68      0.47
  4                   93.25      0.60      0.37
  5                   85.49      0.24      0.04
  6                  629.76      1.79      1.75
  7                  624.91      1.77      1.72
  8                   13.58      0.04      0.00
  9                  607.45      1.72      1.64
  10                   4.85      0.03      0.00
  11                 593.87      1.68      1.57
  12                 560.14      1.59      1.41
  13                 544.62      1.54      1.34
  14                 450.95      1.28      0.94
  15                 402.45      1.14      0.76
  16                  91.72      0.59      0.36
  17                 -12.18      0.08      0.01
  18                  46.13      0.29      0.10
  19                  14.55      0.04      0.00
  20                  -4.85      0.01      0.00
  21                  26.19      0.17      0.03
  22                  46.56      0.13      0.01
  23                  14.12      0.09      0.01
  24                  -1.40      0.01      0.00
  25                  14.01      0.09      0.01
  26                 402.03      1.14      0.76
  27                 412.70      1.17      0.80
  28                 394.27      1.12      0.74
  29                 353.53      1.00      0.60
  30                  34.92      0.10      0.01
  31                  18.43      0.12      0.02
  32                  10.67      0.07      0.01
  34                   1.67      0.01      0.00
  35                   2.91      0.02      0.00
  36                   1.45      0.01      0.00
  37                 -21.34      0.14      0.02
  38                   2.21      0.01      0.00
  39                   2.91      0.02      0.00
  40                   0.70      0.00      0.00
  41                   0.97      0.01      0.00
   
   
  Node Results at 3:15:00 hrs:
  --------------------------------------------------------
                     Demand      Head  Pressure  Fluoride
  Node                  gpm        ft       psi      mg/L
  --------------------------------------------------------
  1                 -666.62    315.28    114.94 2.00e+006
  2                    7.76    310.61     91.26 2.00e+006
  3                   13.58    310.00    108.32 2.00e+006
  4                    7.76    309.56    108.13 2.00e+006
  5                    7.76    309.51     90.78 2.00e+006
  6                    4.85    307.41     79.04 1.98e+006
  7                    3.88    302.75     61.86 1.83e+006
  8                    8.73    302.75     83.52      1.00
  9                   13.58    302.10     52.91 1.81e+006
  10                   4.85    302.75     74.85      1.00
  11                  33.74    301.00     50.26 1.79e+006
  12                  15.52    298.33     38.27 1.74e+006
  13                   1.94    297.52     37.92 1.74e+006
  14                   1.94    297.15     42.09 1.74e+006
  15                   1.94    296.92     46.33 1.69e+006
  16                  19.40    296.99     63.69 1.70e+006
  17                  19.40    296.93     50.67 1.07e+006
  18                  19.40    296.93     85.33      1.00
  19                   4.85    296.94     63.67      1.00
  20                  18.43    297.13     55.09   3159.54
  21                  15.52    297.12     63.75      1.00
  22                   9.70    297.12     42.08      1.00
  23                   7.76    296.26     28.71 1.68e+006
  24                  10.67    296.72     46.24 1.68e+006
  25                   5.82    296.04     28.61 1.66e+006
  27                   7.76    296.03     71.94     34.80
  28                   0.00    296.02     80.60      1.00
  29                   6.79    296.02     80.60      1.00
  30                   2.91    296.02     71.94      1.00
  31                  16.49    296.03     45.94  78185.91
  32                  16.49    296.93     81.00      1.00
  33                   1.45    297.12     50.75      1.00
  34                   1.45    297.12     46.41      1.00
  35                   0.00    296.02     80.60      1.00
  36                   0.97    296.02     80.60      1.00
  26                 353.53    295.92     26.40  40140.72  Tank
   
   
  Link Results at 3:15:00 hrs:
  ----------------------------------------------
                       Flow  Velocity  Headloss
  Link                  gpm       fps   /1000ft
  ----------------------------------------------
  1                  666.62      1.89      1.94
  2                  552.04      1.57      1.37
  3                  106.83      0.68      0.47
  4                   93.25      0.60      0.37
  5                   85.49      0.24      0.04
  6                  629.76      1.79      1.75
  7                  624.91      1.77      1.72
  8                   13.58      0.04      0.00
  9                  607.45      1.72      1.64
  10                   4.85      0.03      0.00
  11                 593.87      1.68      1.57
  12                 560.14      1.59      1.41
  13                 544.62      1.54      1.34
  14                 450.95      1.28      0.94
  15                 402.45      1.14      0.76
  16                  91.72      0.59      0.36
  17                 -12.18      0.08      0.01
  18                  46.13      0.29      0.10
  19                  14.55      0.04      0.00
  20                  -4.85      0.01      0.00
  21                  26.19      0.17      0.03
  22                  46.56      0.13      0.01
  23                  14.12      0.09      0.01
  24                  -1.40      0.01      0.00
  25                  14.01      0.09      0.01
  26                 402.03      1.14      0.76
  27                 412.70      1.17      0.80
  28                 394.27      1.12      0.74
  29                 353.53      1.00      0.60
  30                  34.92      0.10      0.01
  31                  18.43      0.12      0.02
  32                  10.67      0.07      0.01
  34                   1.67      0.01      0.00
  35                   2.91      0.02      0.00
  36                   1.45      0.01      0.00
  37                 -21.34      0.14      0.02
  38                   2.21      0.01      0.00
  39                   2.91      0.02      0.00
  40                   0.70      0.00      0.00
  41                   0.97      0.01      0.00
   
   
  Node Results at 3:30:00 hrs:
  --------------------------------------------------------
                     Demand      Head  Pressure  Fluoride
  Node                  gpm        ft       psi      mg/L
  --------------------------------------------------------
  1                 -666.62    315.64    115.10 2.00e+006
  2                    7.76    310.97     91.41 2.00e+006
  3                   13.58    310.36    108.48 2.00e+006
  4                    7.76    309.92    108.29 2.00e+006
  5                    7.76    309.87     90.94 2.00e+006
  6                    4.85    307.77     79.20 2.00e+006
  7                    3.88    303.12     62.01 1.93e+006
  8                    8.73    303.11     83.68      1.00
  9                   13.58    302.46     53.06 1.91e+006
  10                   4.85    303.11     75.01      1.00
  11                  33.74    301.36     50.42 1.86e+006
  12                  15.52    298.69     38.43 1.77e+006
  13                   1.94    297.88     38.08 1.76e+006
  14                   1.94    297.51     42.25 1.75e+006
  15                   1.94    297.28     46.48 1.70e+006
  16                  19.40    297.35     63.85 1.73e+006
  17                  19.40    297.29     50.82 1.46e+006
  18                  19.40    297.29     85.49      1.00
  19                   4.85    297.30     63.83      1.00
  20                  18.43    297.49     55.24  29475.35
  21                  15.52    297.48     63.90      1.00
  22                   9.70    297.48     42.24      1.00
  23                   7.76    296.62     28.87 1.69e+006
  24                  10.67    297.08     46.40 1.69e+006
  25                   5.82    296.40     28.77 1.68e+006
  27                   7.76    296.39     72.10    733.51
  28                   0.00    296.38     80.76      1.00
  29                   6.79    296.39     80.76      1.00
  30                   2.91    296.38     72.09      1.00
  31                  16.49    296.40     46.10 221721.56
  32                  16.49    297.29     81.15      1.00
  33                   1.45    297.48     50.90      1.00
  34                   1.45    297.48     46.57      1.00
  35                   0.00    296.38     80.76      1.00
  36                   0.97    296.38     80.76      1.00
  26                 353.53    296.28     26.55  49803.14  Tank
   
   
  Link Results at 3:30:00 hrs:
  ----------------------------------------------
                       Flow  Velocity  Headloss
  Link                  gpm       fps   /1000ft
  ----------------------------------------------
  1                  666.62      1.89      1.94
  2                  552.04      1.57      1.37
  3                  106.83      0.68      0.47
  4                   93.25      0.60      0.37
  5                   85.49      0.24      0.04
  6                  629.76      1.79      1.75
  7                  624.91      1.77      1.72
  8                   13.58      0.04      0.00
  9                  607.45      1.72      1.64
  10                   4.85      0.03      0.00
  11                 593.87      1.68      1.57
  12                 560.14      1.59      1.41
  13                 544.62      1.54      1.34
  14                 450.95      1.28      0.94
  15                 402.45      1.14      0.76
  16                  91.72      0.59      0.36
  17                 -12.18      0.08      0.01
  18                  46.13      0.29      0.10
  19                  14.55      0.04      0.00
  20                  -4.85      0.01      0.00
  21                  26.19      0.17      0.03
  22                  46.56      0.13      0.01
  23                  14.12      0.09      0.01
  24                  -1.40      0.01      0.00
  25                  14.01      0.09      0.01
  26                 402.03      1.14      0.76
  27                 412.70      1.17      0.80
  28                 394.27      1.12      0.74
  29                 353.53      1.00      0.60
  30                  34.92      0.10      0.01
  31                  18.43      0.12      0.02
  32                  10.67      0.07      0.01
  34                   1.67      0.01      0.00
  35                   2.91      0.02      0.00
  36                   1.45      0.01      0.00
  37                 -21.34      0.14      0.02
  38                   2.21      0.01      0.00
  39                   2.91      0.02      0.00
  40                   0.70      0.00      0.00
  41                   0.97      0.01      0.00
   
   
  Node Results at 3:45:00 hrs:
  --------------------------------------------------------
                     Demand      Head  Pressure  Fluoride
  Node                  gpm        ft       psi      mg/L
  --------------------------------------------------------
  1                 -666.62    316.00    115.26 2.00e+006
  2                    7.76    311.33     91.57 2.00e+006
  3                   13.58    310.72    108.64 2.00e+006
  4                    7.76    310.28    108.45 2.00e+006
  5                    7.76    310.23     91.09 2.00e+006
  6                    4.85    308.13     79.35 2.00e+006
  7                    3.88    303.48     62.17 1.99e+006
  8                    8.73    303.48     83.83      1.00
  9                   13.58    302.82     53.22 1.97e+006
  10                   4.85    303.48     75.17      1.00
  11                  33.74    301.72     50.58 1.94e+006
  12                  15.52    299.05     38.58 1.84e+006
  13                   1.94    298.24     38.24 1.81e+006
  14                   1.94    297.87     42.41 1.79e+006
  15                   1.94    297.64     46.64 1.73e+006
  16                  19.40    297.71     64.00 1.74e+006
  17                  19.40    297.65     50.98 1.66e+006
  18                  19.40    297.65     85.64      1.00
  19                   4.85    297.66     63.98    186.56
  20                  18.43    297.85     55.40 157459.34
  21                  15.52    297.84     64.06      1.00
  22                   9.70    297.84     42.39      1.00
  23                   7.76    296.98     29.02 1.71e+006
  24                  10.67    297.44     46.55 1.72e+006
  25                   5.82    296.76     28.93 1.70e+006
  27                   7.76    296.75     72.25   6417.67
  28                   0.00    296.75     80.92      1.00
  29                   6.79    296.75     80.92      1.00
  30                   2.91    296.75     72.25      1.00
  31                  16.49    296.76     46.26 481241.44
  32                  16.49    297.65     81.31      1.00
  33                   1.45    297.84     51.06      1.00
  34                   1.45    297.84     46.73      1.00
  35                   0.00    296.75     80.92      1.00
  36                   0.97    296.75     80.92      1.00
  26                 353.53    296.64     26.71  59448.73  Tank
   
   
  Link Results at 3:45:00 hrs:
  ----------------------------------------------
                       Flow  Velocity  Headloss
  Link                  gpm       fps   /1000ft
  ----------------------------------------------
  1                  666.62      1.89      1.94
  2                  552.04      1.57      1.37
  3                  106.83      0.68      0.47
  4                   93.25      0.60      0.37
  5                   85.49      0.24      0.04
  6                  629.76      1.79      1.75
  7                  624.91      1.77      1.72
  8                   13.58      0.04      0.00
  9                  607.45      1.72      1.64
  10                   4.85      0.03      0.00
  11                 593.87      1.68      1.57
  12                 560.14      1.59      1.41
  13                 544.62      1.54      1.34
  14                 450.95      1.28      0.94
  15                 402.45      1.14      0.76
  16                  91.72      0.59      0.36
  17                 -12.18      0.08      0.01
  18                  46.13      0.29      0.10
  19                  14.55      0.04      0.00
  20                  -4.85      0.01      0.00
  21                  26.19      0.17      0.03
  22                  46.56      0.13      0.01
  23                  14.12      0.09      0.01
  24                  -1.40      0.01      0.00
  25                  14.01      0.09      0.01
  26                 402.03      1.14      0.76
  27                 412.70      1.17      0.80
  28                 394.27      1.12      0.74
  29                 353.53      1.00      0.60
  30                  34.92      0.10      0.01
  31                  18.43      0.12      0.02
  32                  10.67      0.07      0.01
  34                   1.67      0.01      0.00
  35                   2.91      0.02      0.00
  36                   1.45      0.01      0.00
  37                 -21.34      0.14      0.02
  38                   2.21      0.01      0.00
  39                   2.91      0.02      0.00
  40                   0.70      0.00      0.00
  41                   0.97      0.01      0.00
   
   
  Node Results at 4:00:00 hrs:
  --------------------------------------------------------
                     Demand      Head  Pressure  Fluoride
  Node                  gpm        ft       psi      mg/L
  --------------------------------------------------------
  1                 -666.62    316.70    115.56 2.00e+006
  2                    7.12    312.03     91.87 2.00e+006
  3                   12.46    311.43    108.94 2.00e+006
  4                    7.12    310.98    108.75 2.00e+006
  5                    7.12    310.93     91.40 2.00e+006
  6                    4.45    308.82     79.65 2.00e+006
  7                    3.56    304.11     62.44 2.00e+006
  8                    8.01    304.11     84.11      1.00
  9                   12.46    303.45     53.49 2.00e+006
  10                   4.45    304.11     75.44      1.00
  11                  30.95    302.33     50.84 1.98e+006
  12                  14.24    299.57     38.81 1.92e+006
  13                   1.78    298.74     38.45 1.88e+006
  14                   1.78    298.35     42.62 1.86e+006
  15                   1.78    298.11     46.84 1.78e+006
  16                  17.80    298.20     64.22 1.74e+006
  17                  17.80    298.14     51.19 1.72e+006
  18                  17.80    298.14     85.85      1.00
  19                   4.45    298.15     64.19   5548.55
  20                  16.91    298.34     55.61 453791.81
  21                  14.24    298.32     64.27      1.00
  22                   8.90    298.32     42.60      1.00
  23                   7.12    297.38     29.20 1.74e+006
  24                   9.79    297.89     46.75 1.77e+006
  25                   5.34    297.14     29.09 1.73e+006
  27                   7.12    297.13     72.42  32299.19
  28                   0.00    297.13     81.08      1.00
  29                   6.23    297.13     81.08      1.00
  30                   2.67    297.13     72.42      1.00
  31                  15.13    297.13     46.42 864112.25
  32                  15.13    298.14     81.52      1.00
  33                   1.34    298.32     51.27      1.00
  34                   1.34    298.32     46.94      1.00
  35                   0.00    297.13     81.08      1.00
  36                   0.89    297.13     81.08      1.00
  26                 379.35    297.00     26.87  69140.74  Tank
   
   
  Link Results at 4:00:00 hrs:
  ----------------------------------------------
                       Flow  Velocity  Headloss
  Link                  gpm       fps   /1000ft
  ----------------------------------------------
  1                  666.62      1.89      1.94
  2                  553.06      1.57      1.38
  3                  106.45      0.68      0.47
  4                   93.99      0.60      0.37
  5                   86.87      0.25      0.04
  6                  632.80      1.80      1.77
  7                  628.35      1.78      1.74
  8                   12.46      0.04      0.00
  9                  612.33      1.74      1.66
  10                   4.45      0.03      0.00
  11                 599.87      1.70      1.60
  12                 568.92      1.61      1.45
  13                 554.68      1.57      1.38
  14                 460.46      1.31      0.98
  15                 415.96      1.18      0.81
  16                  92.44      0.59      0.36
  17                 -19.46      0.12      0.02
  18                  47.79      0.31      0.11
  19                  10.53      0.03      0.00
  20                  -7.27      0.02      0.00
  21                  26.85      0.17      0.04
  22                  42.72      0.12      0.01
  23                  12.95      0.08      0.01
  24                  -1.29      0.01      0.00
  25                  12.86      0.08      0.01
  26                 423.85      1.20      0.84
  27                 433.64      1.23      0.88
  28                 416.73      1.18      0.81
  29                 379.35      1.08      0.68
  30                  32.04      0.09      0.01
  31                  16.91      0.11      0.02
  32                   9.79      0.06      0.01
  34                   1.53      0.01      0.00
  35                   2.67      0.02      0.00
  36                   1.34      0.01      0.00
  37                 -22.40      0.14      0.03
  38                   2.03      0.01      0.00
  39                   2.67      0.02      0.00
  40                   0.64      0.00      0.00
  41                   0.89      0.01      0.00
   
   
  Node Results at 4:15:00 hrs:
  --------------------------------------------------------
                     Demand      Head  Pressure  Fluoride
  Node                  gpm        ft       psi      mg/L
  --------------------------------------------------------
  1                 -666.62    317.09    115.73 2.00e+006
  2                    7.12    312.42     92.04 2.00e+006
  3                   12.46    311.81    109.11 2.00e+006
  4                    7.12    311.37    108.92 2.00e+006
  5                    7.12    311.32     91.57 2.00e+006
  6                    4.45    309.20     79.82 2.00e+006
  7                    3.56    304.50     62.61 2.00e+006
  8                    8.01    304.50     84.28      1.00
  9                   12.46    303.83     53.66 2.00e+006
  10                   4.45    304.50     75.61      1.00
  11                  30.95    302.71     51.01 2.00e+006
  12                  14.24    299.96     38.98 1.97e+006
  13                   1.78    299.13     38.62 1.95e+006
  14                   1.78    298.74     42.78 1.93e+006
  15                   1.78    298.49     47.01 1.82e+006
  16                  17.80    298.59     64.38 1.77e+006
  17                  17.80    298.52     51.36 1.73e+006
  18                  17.80    298.52     86.02      1.00
  19                   4.45    298.54     64.36  47612.30
  20                  16.91    298.72     55.78 869092.81
  21                  14.24    298.71     64.44      1.00
  22                   8.90    298.71     42.77      1.00
  23                   7.12    297.77     29.36 1.79e+006
  24                   9.79    298.27     46.92 1.81e+006
  25                   5.34    297.53     29.26 1.78e+006
  27                   7.12    297.52     72.58  99985.34
  28                   0.00    297.51     81.25      1.00
  29                   6.23    297.51     81.25      1.00
  30                   2.67    297.51     72.58      1.00
  31                  15.13    297.52     46.59 1.21e+006
  32                  15.13    298.52     81.69      1.00
  33                   1.34    298.71     51.44      1.00
  34                   1.34    298.71     47.10      1.00
  35                   0.00    297.51     81.25      1.00
  36                   0.89    297.51     81.25      1.00
  26                 379.35    297.39     27.03  79680.28  Tank
   
   
  Link Results at 4:15:00 hrs:
  ----------------------------------------------
                       Flow  Velocity  Headloss
  Link                  gpm       fps   /1000ft
  ----------------------------------------------
[...]
  3                    8.84      0.06      0.00
  4                   -8.80      0.06      0.00
  5                  -18.88      0.05      0.00
  6                  -47.88      0.14      0.01
  7                  -54.18      0.15      0.02
  8                   17.64      0.05      0.00
  9                  -76.86      0.22      0.04
  10                   6.30      0.04      0.00
  11                 -94.50      0.27      0.05
  12                -138.32      0.39      0.11
  13                -158.48      0.45      0.14
  14                -198.57      0.56      0.21
  15                -261.57      0.74      0.34
  16                  37.57      0.24      0.07
  17                  65.75      0.42      0.19
  18                   2.02      0.01      0.00
  19                  42.57      0.12      0.01
  20                  17.37      0.05      0.00
  21                  10.35      0.07      0.01
  22                  60.48      0.17      0.02
  23                  18.34      0.12      0.02
  24                  -1.82      0.01      0.00
  25                  18.20      0.12      0.02
  26                -343.70      0.98      0.57
  27                -329.84      0.94      0.53
  28                -353.78      1.00      0.60
  29                -406.70      1.15      0.78
  30                  45.36      0.13      0.01
  31                  23.94      0.15      0.03
  32                  13.86      0.09      0.01
  34                   2.17      0.01      0.00
  35                   3.78      0.02      0.00
  36                   1.89      0.01      0.00
  37                  -4.05      0.03      0.00
  38                   2.87      0.02      0.00
  39                   3.78      0.02      0.00
  40                   0.91      0.01      0.00
  41                   1.26      0.01      0.00
   
   
  Node Results at 23:15:00 hrs:
  --------------------------------------------------------
                     Demand      Head  Pressure  Fluoride
  Node                  gpm        ft       psi      mg/L
  --------------------------------------------------------
  1                    0.00    291.05    104.45      0.00
  2                   10.08    291.05     82.78      0.00
  3                   17.64    291.05    100.11      0.00
  4                   10.08    291.05    100.11      0.00
  5                   10.08    291.05     82.78      0.00
  6                    6.30    291.07     71.96      0.00
  7                    5.04    291.12     56.82 144709.53
  8                   11.34    291.12     78.48 166019.63
  9                   17.64    291.14     48.16 144709.53
  10                   6.30    291.12     69.81 1.18e+006
  11                  43.82    291.17     46.00 144709.53
  12                  20.16    291.37     35.26 144709.53
  13                   2.52    291.45     35.29 144709.53
  14                   2.52    291.54     39.66 144709.53
  15                   2.52    291.64     44.04 144709.53
  16                  25.20    291.35     61.25 144709.53
  17                  25.20    291.35     48.25 140404.63
  18                  25.20    291.34     82.91 140404.70
  19                   6.30    291.34     61.24    828.56
  20                  23.94    291.51     52.65 144709.53
  21                  20.16    291.49     61.31    444.91
  22                  12.60    291.49     39.64    547.37
  23                  10.08    292.11     26.91 144709.53
  24                  13.86    291.77     44.10 144709.53
  25                   7.56    292.29     26.99 144709.53
  27                  10.08    292.28     70.31 144709.53
  28                   0.00    292.27     78.98 132164.88
  29                   8.82    292.27     78.98 144709.53
  30                   3.78    292.27     70.31      1.00
  31                  21.42    292.29     44.32 144709.53
  32                  21.42    291.34     78.58  52812.22
  33                   1.89    291.49     48.31 1.71e+006
  34                   1.89    291.49     43.97      1.00
  35                   0.00    292.27     78.98 111682.88
  36                   1.26    292.27     78.98      1.00
  26                -406.70    292.45     24.89 144709.53  Tank
   
   
  Link Results at 23:15:00 hrs:
  ----------------------------------------------
                       Flow  Velocity  Headloss
  Link                  gpm       fps   /1000ft
  ----------------------------------------------
  1                   -0.00      0.00      0.00
  2                  -18.92      0.05      0.00
  3                    8.84      0.06      0.00
  4                   -8.80      0.06      0.00
  5                  -18.88      0.05      0.00
  6                  -47.88      0.14      0.01
  7                  -54.18      0.15      0.02
  8                   17.64      0.05      0.00
  9                  -76.86      0.22      0.04
  10                   6.30      0.04      0.00
  11                 -94.50      0.27      0.05
  12                -138.32      0.39      0.11
  13                -158.48      0.45      0.14
  14                -198.57      0.56      0.21
  15                -261.57      0.74      0.34
  16                  37.57      0.24      0.07
  17                  65.75      0.42      0.19
  18                   2.02      0.01      0.00
  19                  42.57      0.12      0.01
  20                  17.37      0.05      0.00
  21                  10.35      0.07      0.01
  22                  60.48      0.17      0.02
  23                  18.34      0.12      0.02
  24                  -1.82      0.01      0.00
  25                  18.20      0.12      0.02
  26                -343.70      0.98      0.57
  27                -329.84      0.94      0.53
  28                -353.78      1.00      0.60
  29                -406.70      1.15      0.78
  30                  45.36      0.13      0.01
  31                  23.94      0.15      0.03
  32                  13.86      0.09      0.01
  34                   2.17      0.01      0.00
  35                   3.78      0.02      0.00
  36                   1.89      0.01      0.00
  37                  -4.05      0.03      0.00
  38                   2.87      0.02      0.00
  39                   3.78      0.02      0.00
  40                   0.91      0.01      0.00
  41                   1.26      0.01      0.00
   
   
  Node Results at 23:30:00 hrs:
  --------------------------------------------------------
                     Demand      Head  Pressure  Fluoride
  Node                  gpm        ft       psi      mg/L
  --------------------------------------------------------
  1                    0.00    290.64    104.27      0.00
  2                   10.08    290.64     82.60      0.00
  3                   17.64    290.63     99.93      0.00
  4                   10.08    290.64     99.93      0.00
  5                   10.08    290.64     82.60      0.00
  6                    6.30    290.66     71.78      0.00
  7                    5.04    290.71     56.64 144709.53
  8                   11.34    290.70     78.30 180168.61
  9                   17.64    290.72     47.98 144709.53
  10                   6.30    290.70     69.63 676248.81
  11                  43.82    290.76     45.82 144709.53
  12                  20.16    290.96     35.08 144709.53
  13                   2.52    291.04     35.11 144709.53
  14                   2.52    291.12     39.48 144709.53
  15                   2.52    291.23     43.86 144709.53
  16                  25.20    290.94     61.07 144709.53
  17                  25.20    290.94     48.07 140404.58
  18                  25.20    290.93     82.73 140404.58
  19                   6.30    290.93     61.06    593.17
  20                  23.94    291.10     52.47 144709.53
  21                  20.16    291.07     61.13   2958.69
  22                  12.60    291.07     39.46   2498.97
  23                  10.08    291.70     26.73 144709.53
  24                  13.86    291.36     43.92 144709.53
  25                   7.56    291.88     26.81 144709.53
  27                  10.08    291.86     70.13 144709.53
  28                   0.00    291.86     78.80 400548.34
  29                   8.82    291.86     78.80 144709.53
  30                   3.78    291.85     70.13      1.00
  31                  21.42    291.87     44.14 144709.53
  32                  21.42    290.93     78.40  42113.68
  33                   1.89    291.07     48.13 1.73e+006
  34                   1.89    291.07     43.79      1.00
  35                   0.00    291.86     78.80 111682.88
  36                   1.26    291.86     78.80      1.00
  26                -406.70    292.04     24.71 144709.53  Tank
   
   
  Link Results at 23:30:00 hrs:
  ----------------------------------------------
                       Flow  Velocity  Headloss
  Link                  gpm       fps   /1000ft
  ----------------------------------------------
  1                   -0.00      0.00      0.00
  2                  -18.92      0.05      0.00
  3                    8.84      0.06      0.00
  4                   -8.80      0.06      0.00
  5                  -18.88      0.05      0.00
  6                  -47.88      0.14      0.01
  7                  -54.18      0.15      0.02
  8                   17.64      0.05      0.00
  9                  -76.86      0.22      0.04
  10                   6.30      0.04      0.00
  11                 -94.50      0.27      0.05
  12                -138.32      0.39      0.11
  13                -158.48      0.45      0.14
  14                -198.57      0.56      0.21
  15                -261.57      0.74      0.34
  16                  37.57      0.24      0.07
  17                  65.75      0.42      0.19
  18                   2.02      0.01      0.00
  19                  42.57      0.12      0.01
  20                  17.37      0.05      0.00
  21                  10.35      0.07      0.01
  22                  60.48      0.17      0.02
  23                  18.34      0.12      0.02
  24                  -1.82      0.01      0.00
  25                  18.20      0.12      0.02
  26                -343.70      0.98      0.57
  27                -329.84      0.94      0.53
  28                -353.78      1.00      0.60
  29                -406.70      1.15      0.78
  30                  45.36      0.13      0.01
  31                  23.94      0.15      0.03
  32                  13.86      0.09      0.01
  34                   2.17      0.01      0.00
  35                   3.78      0.02      0.00
  36                   1.89      0.01      0.00
  37                  -4.05      0.03      0.00
  38                   2.87      0.02      0.00
  39                   3.78      0.02      0.00
  40                   0.91      0.01      0.00
  41                   1.26      0.01      0.00
   
   
  Node Results at 23:45:00 hrs:
  --------------------------------------------------------
                     Demand      Head  Pressure  Fluoride
  Node                  gpm        ft       psi      mg/L
  --------------------------------------------------------
  1                    0.00    290.22    104.09      0.00
  2                   10.08    290.22     82.42      0.00
  3                   17.64    290.21     99.75      0.00
  4                   10.08    290.22     99.75      0.00
  5                   10.08    290.22     82.42      0.00
  6                    6.30    290.24     71.60      0.00
  7                    5.04    290.29     56.46 144709.53
  8                   11.34    290.29     78.12  84109.67
  9                   17.64    290.31     47.80 144709.53
  10                   6.30    290.29     69.45 478211.56
  11                  43.82    290.34     45.64 144709.53
  12                  20.16    290.54     34.90 144709.53
  13                   2.52    290.62     34.93 144709.53
  14                   2.52    290.71     39.30 144709.53
  15                   2.52    290.81     43.68 144709.53
  16                  25.20    290.52     60.89 144709.53
  17                  25.20    290.52     47.89 140404.64
  18                  25.20    290.51     82.55 140404.61
  19                   6.30    290.51     60.88    230.80
  20                  23.94    290.68     52.29 144709.53
  21                  20.16    290.66     60.95   9881.21
  22                  12.60    290.66     39.28  10216.75
  23                  10.08    291.28     26.55 144709.53
  24                  13.86    290.94     43.74 144709.53
  25                   7.56    291.46     26.63 144709.53
  27                  10.08    291.44     69.95 144709.53
  28                   0.00    291.44     78.62 810884.44
  29                   8.82    291.44     78.62 144709.53
  30                   3.78    291.44     69.95      1.00
  31                  21.42    291.46     43.96 144709.53
  32                  21.42    290.51     78.22  76114.81
  33                   1.89    290.66     47.95 1.75e+006
  34                   1.89    290.66     43.61      1.00
  35                   0.00    291.44     78.62 111682.88
  36                   1.26    291.44     78.62      1.00
  26                -406.70    291.62     24.53 144709.53  Tank
   
   
  Link Results at 23:45:00 hrs:
  ----------------------------------------------
                       Flow  Velocity  Headloss
  Link                  gpm       fps   /1000ft
  ----------------------------------------------
  1                   -0.00      0.00      0.00
  2                  -18.92      0.05      0.00
  3                    8.84      0.06      0.00
  4                   -8.80      0.06      0.00
  5                  -18.88      0.05      0.00
  6                  -47.88      0.14      0.01
  7                  -54.18      0.15      0.02
  8                   17.64      0.05      0.00
  9                  -76.86      0.22      0.04
  10                   6.30      0.04      0.00
  11                 -94.50      0.27      0.05
  12                -138.32      0.39      0.11
  13                -158.48      0.45      0.14
  14                -198.57      0.56      0.21
  15                -261.57      0.74      0.34
  16                  37.57      0.24      0.07
  17                  65.75      0.42      0.19
  18                   2.02      0.01      0.00
  19                  42.57      0.12      0.01
  20                  17.37      0.05      0.00
  21                  10.35      0.07      0.01
  22                  60.48      0.17      0.02
  23                  18.34      0.12      0.02
  24                  -1.82      0.01      0.00
  25                  18.20      0.12      0.02
  26                -343.70      0.98      0.57
  27                -329.84      0.94      0.53
  28                -353.78      1.00      0.60
  29                -406.70      1.15      0.78
  30                  45.36      0.13      0.01
  31                  23.94      0.15      0.03
  32                  13.86      0.09      0.01
  34                   2.17      0.01      0.00
  35                   3.78      0.02      0.00
  36                   1.89      0.01      0.00
  37                  -4.05      0.03      0.00
  38                   2.87      0.02      0.00
  39                   3.78      0.02      0.00
  40                   0.91      0.01      0.00
  41                   1.26      0.01      0.00
   
   
  Node Results at 24:00:00 hrs:
  --------------------------------------------------------
                     Demand      Head  Pressure  Fluoride
  Node                  gpm        ft       psi      mg/L
  --------------------------------------------------------
  1                 -381.92    297.99    107.45      0.00
  2                    4.80    296.33     85.07      0.00
  3                    8.40    296.11    102.30      0.00
  4                    4.80    295.95    102.24      0.00
  5                    4.80    295.94     84.90      0.00
  6                    3.00    295.19     73.75      0.00
  7                    2.40    293.55     57.87 144709.53
  8                    5.40    293.55     79.53   8386.41
  9                    8.40    293.32     49.10 144709.53
  10                   3.00    293.55     70.87 257640.50
  11                  20.87    292.94     46.77 144709.53
  12                   9.60    292.01     35.53 144709.53
  13                   1.20    291.73     35.41 144709.53
  14                   1.20    291.60     39.69 144709.53
  15                   1.20    291.53     43.99 144709.53
  16                  12.00    291.55     61.33 144709.53
  17                  12.00    291.53     48.32 140404.58
  18                  12.00    291.53     82.99 140404.63
  19                   3.00    291.53     61.32    230.80
  20                  11.40    291.60     52.69 144709.53
  21                   9.60    291.59     61.35  41559.99
  22                   6.00    291.59     39.69  38351.68
  23                   4.80    291.31     26.57 144709.53
  24                   6.60    291.46     43.96 144709.53
  25                   3.60    291.24     26.54 144709.53
  27                   4.80    291.24     69.86 144709.53
  28                   0.00    291.24     78.53 1.24e+006
  29                   4.20    291.24     78.53 144709.53
  30                   1.80    291.24     69.86      1.00
  31                  10.20    291.24     43.87 144709.53
  32                  10.20    291.53     78.65 136298.69
  33                   0.90    291.59     48.35 1.82e+006
  34                   0.90    291.59     44.02      1.00
  35                   0.00    291.24     78.53 111682.88
  36                   0.60    291.24     78.53      1.00
  26                 188.25    291.20     24.35 144709.53  Tank
   
   
  Link Results at 24:00:00 hrs:
  ----------------------------------------------
                       Flow  Velocity  Headloss
  Link                  gpm       fps   /1000ft
  ----------------------------------------------
  1                  381.92      1.08      0.69
  2                  315.71      0.90      0.49
  3                   61.41      0.39      0.17
  4                   53.01      0.34      0.13
  5                   48.21      0.14      0.02
  6                  359.12      1.02      0.62
  7                  356.12      1.01      0.61
  8                    8.40      0.02      0.00
  9                  345.32      0.98      0.58
  10                   3.00      0.02      0.00
  11                 336.92      0.96      0.55
  12                 316.05      0.90      0.49
  13                 306.45      0.87      0.46
  14                 253.33      0.72      0.32
  15                 223.33      0.63      0.26
  16                  51.92      0.33      0.12
  17                  -2.72      0.02      0.00
  18                  25.35      0.16      0.03
  19                  10.63      0.03      0.00
  20                  -1.37      0.00      0.00
  21                  14.57      0.09      0.01
  22                  28.80      0.08      0.01
  23                   8.73      0.06      0.00
  24                  -0.87      0.01      0.00
  25                   8.67      0.06      0.00
  26                 218.25      0.62      0.25
  27                 224.85      0.64      0.26
  28                 213.45      0.61      0.24
  29                 188.25      0.53      0.19
  30                  21.60      0.06      0.00
  31                  11.40      0.07      0.01
  32                   6.60      0.04      0.00
  34                   1.03      0.01      0.00
  35                   1.80      0.01      0.00
  36                   0.90      0.01      0.00
  37                 -11.57      0.07      0.01
  38                   1.37      0.01      0.00
  39                   1.80      0.01      0.00
  40                   0.43      0.00      0.00
  41                   0.60      0.00      0.00
   
  Analysis ended Fri Dec 29 20:40:32 2023
