  Page 1                                    Sun May 05 19:57:01 2024

  ******************************************************************
  *                           E P A N E T                          *
  *                   Hydraulic and Water Quality                  *
  *                   Analysis for Pipe Networks                   *
  *                         Version 2.2                            *
  ******************************************************************
  
  Analysis begun Sun May 05 19:57:01 2024

   
  Hydraulic Status:
  -----------------------------------------------------------------------
     0:00:00: Balanced after 4 trials
     0:00:00: Reservoir 9 is emptying
     0:00:00: Tank 2 is filling at 120.00 ft
   
     1:00:00: Balanced after 3 trials
   
     2:00:00: Balanced after 3 trials
   
     3:00:00: Balanced after 2 trials
   
     4:00:00: Balanced after 2 trials
   
     5:00:00: Balanced after 2 trials
   
     6:00:00: Balanced after 3 trials
   
     7:00:00: Balanced after 3 trials
   
     8:00:00: Balanced after 3 trials
   
     8:47:58: Pump 9 changed by Tank 2 control
     8:47:58: Balanced after 4 trials
     8:47:58: Reservoir 9 is closed
     8:47:58: Tank 2 is emptying at 140.00 ft
     8:47:58: Pump 9 changed from open to closed
   
     9:00:00: Balanced after 2 trials
   
    10:00:00: Balanced after 2 trials
   
    11:00:00: Balanced after 2 trials
   
    12:00:00: Balanced after 2 trials
   
    13:00:00: Balanced after 2 trials
   
    14:00:00: Balanced after 2 trials
   
    15:00:00: Balanced after 2 trials
   
    15:48:23: Pump 9 changed by Tank 2 control
    15:48:23: Balanced after 8 trials
    15:48:23: Reservoir 9 is emptying
    15:48:23: Tank 2 is filling at 110.00 ft
    15:48:23: Pump 9 changed from closed to open
   
    16:00:00: Balanced after 2 trials
   
    17:00:00: Balanced after 2 trials
   
    18:00:00: Balanced after 3 trials
   
    19:00:00: Balanced after 3 trials
   
    20:00:00: Balanced after 3 trials
   
    21:00:00: Balanced after 3 trials
   
    22:00:00: Balanced after 3 trials
   
    23:00:00: Balanced after 3 trials
   
    24:00:00: Balanced after 3 trials
   
    24:08:39: Pump 9 changed by Tank 2 control
    24:08:39: Balanced after 4 trials
    24:08:39: Reservoir 9 is closed
    24:08:39: Tank 2 is emptying at 140.00 ft
    24:08:39: Pump 9 changed from open to closed
   
    25:00:00: Balanced after 2 trials
   
    26:00:00: Balanced after 2 trials
   
    27:00:00: Balanced after 2 trials
   
    28:00:00: Balanced after 2 trials
   
    29:00:00: Balanced after 2 trials
   
  Water Quality Mass Balance (mg)
  ================================
  Initial Mass:      7.47582e+006
  Mass Inflow:       2.96308e+012
  Mass Outflow:      1.31302e+012
  Mass Reacted:      1.18269e+012
  Final Mass:        4.67379e+011
  Mass Ratio:         1.00000
  ================================

  Analysis ended Sun May 05 19:57:01 2024
