  Page 1                                    Tue Nov 28 19:49:59 2023

  ******************************************************************
  *                           E P A N E T                          *
  *                   Hydraulic and Water Quality                  *
  *                   Analysis for Pipe Networks                   *
  *                         Version 2.2                            *
  ******************************************************************
  
  Analysis begun Tue Nov 28 19:49:59 2023

  Analysis ended Tue Nov 28 19:49:59 2023
